# generated using pymatgen
data_MgHC4O3
_symmetry_space_group_name_H-M   'P 1'
_cell_length_a   26.09515417
_cell_length_b   26.09512353
_cell_length_c   6.90428522
_cell_angle_alpha   89.99989596
_cell_angle_beta   90.00002267
_cell_angle_gamma   120.00008785
_symmetry_Int_Tables_number   1
_chemical_formula_structural   MgHC4O3
_chemical_formula_sum   'Mg18 H18 C72 O54'
_cell_volume   4071.62896674
_cell_formula_units_Z   18
loop_
 _symmetry_equiv_pos_site_id
 _symmetry_equiv_pos_as_xyz
  1  'x, y, z'
loop_
 _atom_site_type_symbol
 _atom_site_label
 _atom_site_symmetry_multiplicity
 _atom_site_fract_x
 _atom_site_fract_y
 _atom_site_fract_z
 _atom_site_occupancy
 _atom_site_charge
  Mg  Mg0  1  0.36092415  0.04595410  0.03168258  1 1.411499
  Mg  Mg1  1  0.02758817  0.37926801  0.36498099  1 1.412215
  Mg  Mg2  1  0.69426077  0.71258306  0.69830563  1 1.411331
  Mg  Mg3  1  0.95404629  0.31497176  0.03168766  1 1.411396
  Mg  Mg4  1  0.62073281  0.64832045  0.36497790  1 1.412205
  Mg  Mg5  1  0.28741741  0.98167619  0.69830201  1 1.411362
  Mg  Mg6  1  0.68502911  0.63907591  0.03168576  1 1.411402
  Mg  Mg7  1  0.35168234  0.97241348  0.36497435  1 1.412154
  Mg  Mg8  1  0.01832153  0.30573992  0.69830890  1 1.411328
  Mg  Mg9  1  0.63907580  0.95404613  0.96831756  1 1.411503
  Mg  Mg10  1  0.30573917  0.28741676  0.30169529  1 1.411337
  Mg  Mg11  1  0.97241188  0.62073216  0.63501832  1 1.412171
  Mg  Mg12  1  0.04595394  0.68502869  0.96831166  1 1.411406
  Mg  Mg13  1  0.71258238  0.01832360  0.30169789  1 1.411358
  Mg  Mg14  1  0.37926714  0.35167941  0.63502213  1 1.412211
  Mg  Mg15  1  0.31497059  0.36092379  0.96831398  1 1.411431
  Mg  Mg16  1  0.98167858  0.69426030  0.30169093  1 1.411303
  Mg  Mg17  1  0.64831790  0.02758681  0.63502566  1 1.412192
  H  H18  1  0.49656803  0.97263925  0.65486166  1 0.130335
  H  H19  1  0.16323332  0.30597015  -0.01178185  1 0.130482
  H  H20  1  0.82994228  0.63931994  0.32153582  1 0.129931
  H  H21  1  0.02735946  0.52392872  0.65486144  1 0.130311
  H  H22  1  0.69402998  0.85726460  -0.01178028  1 0.13047
  H  H23  1  0.36068149  0.19062167  0.32153566  1 0.129914
  H  H24  1  0.47607057  0.50343128  0.65486183  1 0.1327
  H  H25  1  0.14274048  0.83676233  -0.01178914  1 0.130369
  H  H26  1  0.80937503  0.17006252  0.32154129  1 0.129974
  H  H27  1  0.50343184  0.02736080  0.34513896  1 0.130321
  H  H28  1  0.17005749  0.36068004  0.67846480  1 0.129922
  H  H29  1  0.83676640  0.69402956  0.01178139  1 0.130496
  H  H30  1  0.97264074  0.47607167  0.34513812  1 0.130307
  H  H31  1  0.63931865  0.80937841  0.67846454  1 0.12992
  H  H32  1  0.30596991  0.14273516  0.01178159  1 0.13047
  H  H33  1  0.52392940  0.49656864  0.34513913  1 0.130037
  H  H34  1  0.19062517  0.82993749  0.67845953  1 0.129986
  H  H35  1  0.85725989  0.16323781  0.01178934  1 0.130369
  C  C36  1  0.40561899  0.98483953  0.74484301  1 0.677942
  C  C37  1  0.45357221  0.99372019  0.88029870  1 -0.164379
  C  C38  1  0.49854986  0.98481656  0.80674337  1 -0.205442
  C  C39  1  0.54563764  0.99065851  0.92017853  1 0.337187
  C  C40  1  0.07227411  0.31815550  0.07813350  1 0.678253
  C  C41  1  0.12022716  0.32703829  0.21360655  1 -0.164887
  C  C42  1  0.16521310  0.31815070  0.14006696  1 -0.205239
  C  C43  1  0.21229394  0.32399881  0.25352903  1 0.338071
  C  C44  1  0.73896903  0.65148316  0.41146709  1 0.676584
  C  C45  1  0.78692346  0.66038052  0.54693611  1 -0.166089
  C  C46  1  0.83191147  0.65149303  0.47339633  1 -0.202848
  C  C47  1  0.87899036  0.65734064  0.58686988  1 0.336619
  C  C48  1  0.01516588  0.42078251  0.74484558  1 0.677932
  C  C49  1  0.00628385  0.45985409  0.88030006  1 -0.164159
  C  C50  1  0.01518356  0.51373342  0.80674279  1 -0.205428
  C  C51  1  0.00933777  0.55497720  0.92017518  1 0.337153
  C  C52  1  0.68184200  0.75411878  0.07813087  1 0.678308
  C  C53  1  0.67296047  0.79318933  0.21360263  1 -0.165085
  C  C54  1  0.68184927  0.84706366  0.14006597  1 -0.205108
  C  C55  1  0.67600240  0.88829701  0.25352930  1 0.338152
  C  C56  1  0.34851553  0.08748483  0.41146499  1 0.676717
  C  C57  1  0.33961839  0.12654127  0.54693705  1 -0.166196
  C  C58  1  0.34850711  0.18041755  0.47339843  1 -0.202793
  C  C59  1  0.34266018  0.22164928  0.58687276  1 0.336654
  C  C60  1  0.57921916  0.59438299  0.74484440  1 0.677826
  C  C61  1  0.54014685  0.54642924  0.88030098  1 -0.164513
  C  C62  1  0.48626642  0.50145006  0.80674412  1 -0.207167
  C  C63  1  0.44502146  0.45436071  0.92017655  1 0.33706
  C  C64  1  0.24588368  0.92772229  0.07812897  1 0.67816
  C  C65  1  0.20681437  0.87976942  0.21360248  1 -0.164925
  C  C66  1  0.15294086  0.83478309  0.14006283  1 -0.205
  C  C67  1  0.11170706  0.78770305  0.25352698  1 0.338143
  C  C68  1  0.91251288  0.26103305  0.41147094  1 0.676587
  C  C69  1  0.87345630  0.21307934  0.54693960  1 -0.166122
  C  C70  1  0.81957915  0.16809173  0.47340290  1 -0.203048
  C  C71  1  0.77834734  0.12101227  0.58687414  1 0.336595
  C  C72  1  0.59438089  0.01516049  0.25515695  1 0.677913
  C  C73  1  0.54642789  0.00627969  0.11970132  1 -0.164363
  C  C74  1  0.50145026  0.01518322  0.19325712  1 -0.205428
  C  C75  1  0.45436239  0.00934165  0.07982233  1 0.337171
  C  C76  1  0.26103088  0.34851678  0.58853262  1 0.676638
  C  C77  1  0.21307621  0.33961923  0.45306417  1 -0.166109
  C  C78  1  0.16808814  0.34850671  0.52660395  1 -0.202836
  C  C79  1  0.12100945  0.34265921  0.41312990  1 0.336584
  C  C80  1  0.92772583  0.68184426  0.92186683  1 0.678292
  C  C81  1  0.87977236  0.67296127  0.78639397  1 -0.165112
  C  C82  1  0.83478648  0.68184891  0.85993369  1 -0.205135
  C  C83  1  0.78770591  0.67600099  0.74647154  1 0.33811
  C  C84  1  0.98483459  0.57921807  0.25515284  1 0.67789
  C  C85  1  0.99371665  0.54014660  0.11969823  1 -0.164271
  C  C86  1  0.98481707  0.48626731  0.19325594  1 -0.205404
  C  C87  1  0.99066264  0.44502316  0.07982348  1 0.337181
  C  C88  1  0.65148402  0.91251498  0.58853443  1 0.676717
  C  C89  1  0.66038134  0.87345883  0.45306336  1 -0.166174
  C  C90  1  0.65149276  0.81958247  0.52660206  1 -0.202862
  C  C91  1  0.65733977  0.77835040  0.41312840  1 0.336661
  C  C92  1  0.31815808  0.24588127  0.92186969  1 0.678279
  C  C93  1  0.32703970  0.20681065  0.78639578  1 -0.16511
  C  C94  1  0.31815057  0.15293630  0.85993317  1 -0.205049
  C  C95  1  0.32399738  0.11170305  0.74646984  1 0.338067
  C  C96  1  0.42078078  0.40561723  0.25515512  1 0.677856
  C  C97  1  0.45985286  0.45357056  0.11969951  1 -0.164314
  C  C98  1  0.51373330  0.49854972  0.19325635  1 -0.204979
  C  C99  1  0.55497828  0.54563912  0.07982321  1 0.337251
  C  C100  1  0.08748693  0.73896670  0.58852847  1 0.676678
  C  C101  1  0.12654415  0.78692072  0.45306016  1 -0.166081
  C  C102  1  0.18042123  0.83190819  0.52659765  1 -0.203105
  C  C103  1  0.22165297  0.87898769  0.41312683  1 0.336608
  C  C104  1  0.75411669  0.07227794  0.92187143  1 0.678279
  C  C105  1  0.79318587  0.12023051  0.78639886  1 -0.164916
  C  C106  1  0.84705937  0.16521680  0.85993812  1 -0.205024
  C  C107  1  0.88829314  0.21229685  0.74647350  1 0.338188
  O  O108  1  0.36544418  0.99595476  0.80671940  1 -0.760684
  O  O109  1  0.58733423  0.98145094  0.83827907  1 -0.792941
  O  O110  1  0.40443488  0.96743103  0.57218264  1 -0.633932
  O  O111  1  0.03208118  0.32924259  0.14003383  1 -0.760768
  O  O112  1  0.25398274  0.31478885  0.17161896  1 -0.793272
  O  O113  1  0.07109758  0.30075605  0.90544645  1 -0.633718
  O  O114  1  0.69877101  0.66257400  0.47330526  1 -0.760299
  O  O115  1  0.92068411  0.64813059  0.50497440  1 -0.793005
  O  O116  1  0.73779566  0.63407635  0.23880329  1 -0.632865
  O  O117  1  0.00404968  0.36949233  0.80672131  1 -0.760706
  O  O118  1  0.01854352  0.60588106  0.83827429  1 -0.792973
  O  O119  1  0.03257574  0.43700618  0.57218629  1 -0.633988
  O  O120  1  0.67075398  0.70283800  0.14002960  1 -0.760851
  O  O121  1  0.68521408  0.93919619  0.17162141  1 -0.793316
  O  O122  1  0.69924114  0.77034159  0.90544398  1 -0.633691
  O  O123  1  0.33742473  0.03619566  0.47330090  1 -0.760354
  O  O124  1  0.35187061  0.27255337  0.50497498  1 -0.793003
  O  O125  1  0.36592307  0.10371825  0.23880231  1 -0.632962
  O  O126  1  0.63050928  0.63455742  0.80672142  1 -0.760667
  O  O127  1  0.39411734  0.41266336  0.83827667  1 -0.793055
  O  O128  1  0.56299546  0.59556778  0.57218329  1 -0.634086
  O  O129  1  0.29716386  0.96791566  0.14002887  1 -0.760773
  O  O130  1  0.06080798  0.74601575  0.17161543  1 -0.793312
  O  O131  1  0.22966017  0.92889860  0.90544239  1 -0.633638
  O  O132  1  0.96380188  0.30123064  0.47331142  1 -0.760277
  O  O133  1  0.72744389  0.07931849  0.50497801  1 -0.792896
  O  O134  1  0.89627998  0.26220688  0.23880741  1 -0.63288
  O  O135  1  0.63455590  0.00404553  0.19328033  1 -0.760658
  O  O136  1  0.41266610  0.01854985  0.16172217  1 -0.792889
  O  O137  1  0.59556525  0.03256889  0.42781796  1 -0.633928
  O  O138  1  0.30122872  0.33742574  0.52669434  1 -0.760306
  O  O139  1  0.07931581  0.35186938  0.49502563  1 -0.792978
  O  O140  1  0.26220423  0.36592349  0.76119638  1 -0.632938
  O  O141  1  0.96791877  0.67075729  0.85996617  1 -0.760769
  O  O142  1  0.74601714  0.68521085  0.82838021  1 -0.793257
  O  O143  1  0.92890229  0.69924362  0.09455374  1 -0.633725
  O  O144  1  0.99595012  0.63050783  0.19327561  1 -0.760658
  O  O145  1  0.98145656  0.39411910  0.16172479  1 -0.79297
  O  O146  1  0.96742514  0.56299438  0.42781262  1 -0.633943
  O  O147  1  0.66257471  0.96380406  0.52669898  1 -0.760347
  O  O148  1  0.64812933  0.72744655  0.49502516  1 -0.792963
  O  O149  1  0.63407665  0.89628193  0.76119767  1 -0.632988
  O  O150  1  0.32924599  0.29716189  0.85997089  1 -0.760829
  O  O151  1  0.31478586  0.06080394  0.82837795  1 -0.793288
  O  O152  1  0.30075874  0.22965822  0.09455677  1 -0.633668
  O  O153  1  0.36949062  0.36544224  0.19327869  1 -0.760667
  O  O154  1  0.60588278  0.58733674  0.16172388  1 -0.793032
  O  O155  1  0.43700397  0.40443222  0.42781672  1 -0.633956
  O  O156  1  0.03619789  0.69876927  0.52668877  1 -0.760303
  O  O157  1  0.27255625  0.92068138  0.49502211  1 -0.7929
  O  O158  1  0.10372010  0.73779295  0.76119219  1 -0.632945
  O  O159  1  0.70283639  0.03208457  0.85997097  1 -0.76087
  O  O160  1  0.93919244  0.25398443  0.82838485  1 -0.793355
  O  O161  1  0.77034010  0.07110156  0.09455776  1 -0.633687
