data_image0
_chemical_formula_structural       Mg18H18C73O56
_chemical_formula_sum              "Mg18 H18 C73 O56"
_cell_length_a       26.0952
_cell_length_b       26.0951
_cell_length_c       6.90429
_cell_angle_alpha    89.9999
_cell_angle_beta     90
_cell_angle_gamma    120

_space_group_name_H-M_alt    "P 1"
_space_group_IT_number       1

loop_
  _space_group_symop_operation_xyz
  'x, y, z'

loop_
  _atom_site_type_symbol
  _atom_site_label
  _atom_site_symmetry_multiplicity
  _atom_site_fract_x
  _atom_site_fract_y
  _atom_site_fract_z
  _atom_site_occupancy
  Mg  Mg1       1.0  0.35897  0.04520  0.02803  1.0000
  Mg  Mg2       1.0  0.02548  0.37890  0.35873  1.0000
  Mg  Mg3       1.0  0.69207  0.71257  0.69376  1.0000
  Mg  Mg4       1.0  0.95338  0.31305  0.02605  1.0000
  Mg  Mg5       1.0  0.61970  0.64689  0.36028  1.0000
  Mg  Mg6       1.0  0.28649  0.97970  0.69453  1.0000
  Mg  Mg7       1.0  0.68543  0.64035  0.02706  1.0000
  Mg  Mg8       1.0  0.35196  0.97275  0.36135  1.0000
  Mg  Mg9       1.0  0.01941  0.30683  0.69291  1.0000
  Mg  Mg10      1.0  0.64003  0.95409  0.97335  1.0000
  Mg  Mg11      1.0  0.30631  0.28688  0.30649  1.0000
  Mg  Mg12      1.0  0.96954  0.61787  0.64312  1.0000
  Mg  Mg13      1.0  0.04522  0.68564  0.97016  1.0000
  Mg  Mg14      1.0  0.71236  0.01970  0.30665  1.0000
  Mg  Mg15      1.0  0.37868  0.35247  0.63950  1.0000
  Mg  Mg16      1.0  0.31310  0.35922  0.97297  1.0000
  Mg  Mg17      1.0  0.98017  0.69257  0.30565  1.0000
  Mg  Mg18      1.0  0.64668  0.02638  0.63989  1.0000
  H   H1        1.0  0.49758  0.97345  0.65510  1.0000
  H   H2        1.0  0.16416  0.30677  0.98826  1.0000
  H   H3        1.0  0.83085  0.64120  0.32078  1.0000
  H   H4        1.0  0.02516  0.52356  0.65244  1.0000
  H   H5        1.0  0.69306  0.85798  0.98866  1.0000
  H   H6        1.0  0.35967  0.19072  0.32200  1.0000
  H   H7        1.0  0.47466  0.50168  0.65473  1.0000
  H   H8        1.0  0.14164  0.83451  0.98778  1.0000
  H   H9        1.0  0.80849  0.16863  0.32176  1.0000
  H   H10       1.0  0.50164  0.02633  0.34560  1.0000
  H   H11       1.0  0.16842  0.36014  0.67835  1.0000
  H   H12       1.0  0.83502  0.69373  0.01160  1.0000
  H   H13       1.0  0.97139  0.47445  0.34231  1.0000
  H   H14       1.0  0.63955  0.80896  0.67868  1.0000
  H   H15       1.0  0.30662  0.14193  0.01249  1.0000
  H   H16       1.0  0.52381  0.49762  0.34488  1.0000
  H   H17       1.0  0.19032  0.82959  0.67791  1.0000
  H   H18       1.0  0.85764  0.16427  0.01178  1.0000
  C   C1        1.0  0.40699  0.98698  0.74024  1.0000
  C   C2        1.0  0.45428  0.99525  0.87791  1.0000
  C   C3        1.0  0.49880  0.98510  0.80725  1.0000
  C   C4        1.0  0.54463  0.98900  0.92335  1.0000
  C   C5        1.0  0.07409  0.32107  0.07238  1.0000
  C   C6        1.0  0.12118  0.32915  0.21047  1.0000
  C   C7        1.0  0.16544  0.31854  0.14031  1.0000
  C   C8        1.0  0.21111  0.32219  0.25663  1.0000
  C   C9        1.0  0.74020  0.65443  0.40645  1.0000
  C   C10       1.0  0.78746  0.66272  0.54395  1.0000
  C   C11       1.0  0.83199  0.65266  0.47305  1.0000
  C   C12       1.0  0.87794  0.65674  0.58881  1.0000
  C   C13       1.0  0.01063  0.41913  0.73731  1.0000
  C   C14       1.0  0.00247  0.45815  0.87495  1.0000
  C   C15       1.0  0.01322  0.51307  0.80445  1.0000
  C   C16       1.0  0.01025  0.55553  0.92090  1.0000
  C   C17       1.0  0.67813  0.75333  0.07283  1.0000
  C   C18       1.0  0.67037  0.79253  0.21087  1.0000
  C   C19       1.0  0.68119  0.84747  0.14064  1.0000
  C   C20       1.0  0.67753  0.88950  0.25684  1.0000
  C   C21       1.0  0.34535  0.08624  0.40701  1.0000
  C   C22       1.0  0.33747  0.12549  0.54472  1.0000
  C   C23       1.0  0.34794  0.18029  0.47413  1.0000
  C   C24       1.0  0.34401  0.22223  0.59006  1.0000
  C   C25       1.0  0.57896  0.59209  0.73935  1.0000
  C   C26       1.0  0.53993  0.54489  0.87714  1.0000
  C   C27       1.0  0.48519  0.50045  0.80677  1.0000
  C   C28       1.0  0.44332  0.45462  0.92298  1.0000
  C   C29       1.0  0.24573  0.92497  0.07374  1.0000
  C   C30       1.0  0.20670  0.87762  0.21095  1.0000
  C   C31       1.0  0.15208  0.83315  0.13985  1.0000
  C   C32       1.0  0.11025  0.78713  0.25552  1.0000
  C   C33       1.0  0.91292  0.25850  0.40583  1.0000
  C   C34       1.0  0.87388  0.21150  0.54391  1.0000
  C   C35       1.0  0.81900  0.16731  0.47376  1.0000
  C   C36       1.0  0.77700  0.12165  0.59013  1.0000
  C   C37       1.0  0.59202  0.01249  0.26063  1.0000
  C   C38       1.0  0.54485  0.00439  0.12290  1.0000
  C   C39       1.0  0.50038  0.01462  0.19351  1.0000
  C   C40       1.0  0.45445  0.01054  0.07757  1.0000
  C   C41       1.0  0.25842  0.34552  0.59398  1.0000
  C   C42       1.0  0.21136  0.33768  0.45610  1.0000
  C   C43       1.0  0.16712  0.34834  0.52629  1.0000
  C   C44       1.0  0.12141  0.34464  0.40994  1.0000
  C   C45       1.0  0.92554  0.67990  0.92614  1.0000
  C   C46       1.0  0.87818  0.67186  0.78865  1.0000
  C   C47       1.0  0.83368  0.68202  0.85947  1.0000
  C   C48       1.0  0.78777  0.67804  0.74360  1.0000
  C   C49       1.0  0.98568  0.57896  0.25737  1.0000
  C   C50       1.0  0.99409  0.53987  0.12009  1.0000
  C   C51       1.0  0.98328  0.48495  0.19030  1.0000
  C   C52       1.0  0.98721  0.44296  0.07452  1.0000
  C   C53       1.0  0.65408  0.91341  0.59418  1.0000
  C   C54       1.0  0.66206  0.87430  0.45633  1.0000
  C   C55       1.0  0.65133  0.81940  0.52661  1.0000
  C   C56       1.0  0.65486  0.77730  0.41033  1.0000
  C   C57       1.0  0.32043  0.24615  0.92725  1.0000
  C   C58       1.0  0.32866  0.20711  0.78970  1.0000
  C   C59       1.0  0.31831  0.15237  0.86036  1.0000
  C   C60       1.0  0.32204  0.11033  0.74428  1.0000
  C   C61       1.0  0.41950  0.40722  0.26033  1.0000
  C   C62       1.0  0.45855  0.45440  0.12248  1.0000
  C   C63       1.0  0.51330  0.49884  0.19281  1.0000
  C   C64       1.0  0.55517  0.54469  0.07663  1.0000
  C   C65       1.0  0.08601  0.73889  0.59206  1.0000
  C   C66       1.0  0.12523  0.78648  0.45481  1.0000
  C   C67       1.0  0.17987  0.83102  0.52592  1.0000
  C   C68       1.0  0.22171  0.87719  0.41054  1.0000
  C   C69       1.0  0.75313  0.07435  0.92752  1.0000
  C   C70       1.0  0.79226  0.12140  0.78956  1.0000
  C   C71       1.0  0.84715  0.16560  0.85974  1.0000
  C   C72       1.0  0.88915  0.21124  0.74329  1.0000
  C   C73       1.0  0.86807  0.48486  0.79272  1.0000
  O   O1        1.0  0.36646  0.99783  0.80061  1.0000
  O   O2        1.0  0.58579  0.97858  0.84302  1.0000
  O   O3        1.0  0.40621  0.96975  0.56753  1.0000
  O   O4        1.0  0.03360  0.33210  0.13212  1.0000
  O   O5        1.0  0.25209  0.31148  0.17646  1.0000
  O   O6        1.0  0.07336  0.30377  0.89982  1.0000
  O   O7        1.0  0.69967  0.66531  0.46673  1.0000
  O   O8        1.0  0.91917  0.64669  0.50814  1.0000
  O   O9        1.0  0.73933  0.63710  0.23378  1.0000
  O   O10       1.0  0.00051  0.36809  0.79831  1.0000
  O   O11       1.0  0.02173  0.60731  0.84127  1.0000
  O   O12       1.0  0.02730  0.43546  0.56408  1.0000
  O   O13       1.0  0.66686  0.70179  0.13290  1.0000
  O   O14       1.0  0.68815  0.94115  0.17647  1.0000
  O   O15       1.0  0.69535  0.76978  0.90012  1.0000
  O   O16       1.0  0.33397  0.03467  0.46720  1.0000
  O   O17       1.0  0.35427  0.27375  0.50951  1.0000
  O   O18       1.0  0.36273  0.10271  0.23440  1.0000
  O   O19       1.0  0.63037  0.63258  0.79965  1.0000
  O   O20       1.0  0.39175  0.41345  0.84267  1.0000
  O   O21       1.0  0.56249  0.59283  0.56662  1.0000
  O   O22       1.0  0.29723  0.96534  0.13405  1.0000
  O   O23       1.0  0.05869  0.74609  0.17500  1.0000
  O   O24       1.0  0.22926  0.92598  0.90120  1.0000
  O   O25       1.0  0.96443  0.29891  0.46568  1.0000
  O   O26       1.0  0.72534  0.08070  0.50991  1.0000
  O   O27       1.0  0.89639  0.25926  0.23319  1.0000
  O   O28       1.0  0.63243  0.00141  0.20050  1.0000
  O   O29       1.0  0.41315  0.02067  0.15816  1.0000
  O   O30       1.0  0.59287  0.02980  0.43328  1.0000
  O   O31       1.0  0.29871  0.33428  0.53373  1.0000
  O   O32       1.0  0.08033  0.35527  0.48994  1.0000
  O   O33       1.0  0.25924  0.36277  0.76669  1.0000
  O   O34       1.0  0.96641  0.66984  0.86429  1.0000
  O   O35       1.0  0.74648  0.68828  0.82420  1.0000
  O   O36       1.0  0.92589  0.69626  0.09975  1.0000
  O   O37       1.0  0.99629  0.63002  0.19571  1.0000
  O   O38       1.0  0.97700  0.39154  0.15529  1.0000
  O   O39       1.0  0.96813  0.56239  0.42969  1.0000
  O   O40       1.0  0.66513  0.96486  0.53390  1.0000
  O   O41       1.0  0.64404  0.72558  0.49052  1.0000
  O   O42       1.0  0.63684  0.89695  0.76688  1.0000
  O   O43       1.0  0.33131  0.29753  0.86673  1.0000
  O   O44       1.0  0.31141  0.05869  0.82462  1.0000
  O   O45       1.0  0.30318  0.22973  0.09998  1.0000
  O   O46       1.0  0.36802  0.36679  0.20027  1.0000
  O   O47       1.0  0.60671  0.58588  0.15697  1.0000
  O   O48       1.0  0.43598  0.40642  0.43299  1.0000
  O   O49       1.0  0.03491  0.69787  0.53174  1.0000
  O   O50       1.0  0.27313  0.91859  0.49147  1.0000
  O   O51       1.0  0.10267  0.73895  0.76516  1.0000
  O   O52       1.0  0.70166  0.03399  0.86729  1.0000
  O   O53       1.0  0.94088  0.25222  0.82332  1.0000
  O   O54       1.0  0.76961  0.07361  0.10023  1.0000
  O   O55       1.0  0.84635  0.43379  0.81552  1.0000
  O   O56       1.0  0.88815  0.53626  0.77069  1.0000
