data_image0
_chemical_formula_structural       Zn18H25C64O54
_chemical_formula_sum              "Zn18 H25 C64 O54"
_cell_length_a       20.73837352
_cell_length_b       15.06326905
_cell_length_c       15.69397167
_cell_angle_alpha    59.76040466000001
_cell_angle_beta     82.22504172
_cell_angle_gamma    99.30868598999999

_space_group_name_H-M_alt    "P 1"
_space_group_IT_number       1

loop_
  _space_group_symop_operation_xyz
  'x, y, z'

loop_
  _atom_site_type_symbol
  _atom_site_label
  _atom_site_symmetry_multiplicity
  _atom_site_fract_x
  _atom_site_fract_y
  _atom_site_fract_z
  _atom_site_occupancy
  Zn  Zn1       1.0  0.2377714300000022  0.34359798999999924  0.26217398  1.0000
  Zn  Zn2       1.0  0.09420498000000073  0.6670980899999962  0.7349236100000026  1.0000
  Zn  Zn3       1.0  0.9074279299999971  0.327612170000002  0.2598644999999991  1.0000
  Zn  Zn4       1.0  0.7554994799999974  0.641918099999998  0.7363503400000013  1.0000
  Zn  Zn5       1.0  0.5767581500000034  0.36210138999999947  0.2675798900000003  1.0000
  Zn  Zn6       1.0  0.4228949900000033  0.6650121099999994  0.7313203699999987  1.0000
  Zn  Zn7       1.0  0.3224528000000007  0.2922551899999988  0.4107505300000014  1.0000
  Zn  Zn8       1.0  0.00876213000000092  0.7241738099999965  0.5905614200000001  1.0000
  Zn  Zn9       1.0  0.6635455199999996  0.2714751000000035  0.39803882999999723  1.0000
  Zn  Zn10      1.0  0.339004469999999  0.7359890199999982  0.5955937000000019  1.0000
  Zn  Zn11      1.0  0.4560264300000014  0.43402262000000036  0.3148362299999974  1.0000
  Zn  Zn12      1.0  0.19256736999999902  0.576537430000002  0.68251609  1.0000
  Zn  Zn13      1.0  0.6658621600000032  0.7553430500000003  0.5885438399999998  1.0000
  Zn  Zn14      1.0  0.9923365300000028  0.26697614999999797  0.4074575200000011  1.0000
  Zn  Zn15      1.0  0.8095313900000035  0.4133599600000012  0.3175862800000004  1.0000
  Zn  Zn16      1.0  0.5435614299999969  0.5936767199999978  0.6854342000000031  1.0000
  Zn  Zn17      1.0  0.12551380000000023  0.4266432699999997  0.30415977999999905  1.0000
  Zn  Zn18      1.0  0.874464709999998  0.5687440499999995  0.69223822  1.0000
  H   H1        1.0  0.04400170000000261  0.45302809999999744  0.9797214900000027  1.0000
  H   H2        1.0  0.2770854299999996  0.5298657900000024  0.0107741699999977  1.0000
  H   H3        1.0  0.7236367000000001  0.4808555500000012  0.9841801299999985  1.0000
  H   H4        1.0  0.957295809999998  0.5414764599999984  0.0177382299999991  1.0000
  H   H5        1.0  0.612897580000002  0.5334149199999986  0.026314460000001795  1.0000
  H   H6        1.0  0.3839180900000017  0.4768868600000005  0.9756355299999981  1.0000
  H   H7        1.0  0.291032119999997  0.03476496999999772  0.45401615000000106  1.0000
  H   H8        1.0  0.04365237999999752  0.9743977099999983  0.5489874599999993  1.0000
  H   H9        1.0  0.614775090000002  0.036689289999998265  0.4408964699999983  1.0000
  H   H10       1.0  0.3725881000000014  0.9906953200000005  0.5626365899999968  1.0000
  H   H11       1.0  0.5584284600000018  0.4503957100000023  0.38369044000000224  1.0000
  H   H12       1.0  0.49134345000000224  0.4590249099999967  0.44259055999999924  1.0000
  H   H13       1.0  0.3555766500000033  0.5616503800000033  0.6694850499999986  1.0000
  H   H14       1.0  0.3587940500000002  0.46089368999999897  0.40646359000000126  1.0000
  H   H15       1.0  0.21125211999999752  0.48761039000000045  0.5289419400000028  1.0000
  H   H16       1.0  0.4488747600000024  0.5740320499999997  0.610204539999998  1.0000
  H   H17       1.0  0.5153655299999969  0.5621257999999969  0.5530586400000033  1.0000
  H   H18       1.0  0.6524040700000029  0.455986369999998  0.3303785100000027  1.0000
  H   H19       1.0  0.6738349499999998  0.48633137000000204  0.5768407899999985  1.0000
  H   H20       1.0  0.6572628300000005  0.5908631100000009  0.612444179999997  1.0000
  H   H21       1.0  0.792031889999997  0.3830982100000001  0.5772775399999972  1.0000
  H   H22       1.0  0.7127852599999969  0.9649857400000031  0.5406334299999996  1.0000
  H   H23       1.0  0.95896338  0.01796678000000183  0.44784389000000147  1.0000
  H   H24       1.0  0.10721629999999752  0.44276865999999876  0.5238043000000018  1.0000
  H   H25       1.0  0.8944187600000005  0.5459554400000002  0.47615738999999724  1.0000
  C   C1        1.0  0.2770397800000026  0.5833050099999967  0.8249848499999999  1.0000
  C   C2        1.0  0.0439286699999997  0.39931789999999984  0.1647068300000001  1.0000
  C   C3        1.0  0.09547003000000129  0.4702984400000005  0.9861646299999974  1.0000
  C   C4        1.0  0.1481112700000011  0.5161638200000027  0.8990120899999993  1.0000
  C   C5        1.0  0.1056375200000019  0.4465856799999983  0.08099697000000108  1.0000
  C   C6        1.0  0.22571751000000256  0.5132098899999988  0.0037890400000008995  1.0000
  C   C7        1.0  0.17288468999999654  0.4691145500000006  0.0909870899999987  1.0000
  C   C8        1.0  0.21555948000000313  0.5367779899999975  0.9089023100000019  1.0000
  C   C9        1.0  0.7236678299999966  0.425542919999998  0.17042268000000146  1.0000
  C   C10       1.0  0.9564605699999972  0.599557179999998  0.8311081599999993  1.0000
  C   C11       1.0  0.7752110899999992  0.4937658300000012  0.9915141999999973  1.0000
  C   C12       1.0  0.8279743900000014  0.5348846400000014  0.9048176699999999  1.0000
  C   C13       1.0  0.7854669399999992  0.46830669999999947  0.0869891999999979  1.0000
  C   C14       1.0  0.9057097099999964  0.527378800000001  0.0107648700000027  1.0000
  C   C15       1.0  0.8532359499999983  0.48366400999999837  0.097997239999998  1.0000
  C   C16       1.0  0.8953427599999982  0.5532265399999973  0.9155322499999983  1.0000
  C   C17       1.0  0.37772084000000206  0.411346690000002  0.166610409999997  1.0000
  C   C18       1.0  0.6185136200000017  0.6060270999999986  0.8341318000000015  1.0000
  C   C19       1.0  0.5621267100000011  0.5212318900000028  0.015747269999998495  1.0000
  C   C20       1.0  0.5072520300000036  0.47790419999999767  0.10023208999999869  1.0000
  C   C21       1.0  0.5554294100000022  0.5523232500000007  0.9176451100000022  1.0000
  C   C22       1.0  0.43462266000000227  0.49027519999999924  0.9861119899999976  1.0000
  C   C23       1.0  0.48940348  0.5366785699999995  0.90112697  1.0000
  C   C24       1.0  0.4411745999999964  0.4608023700000032  0.08423215999999908  1.0000
  C   C25       1.0  0.1037212499999995  0.17735548999999656  0.4290010699999982  1.0000
  C   C26       1.0  0.22860766000000152  0.828937779999997  0.5720593100000002  1.0000
  C   C27       1.0  0.23654348000000175  0.021655670000001206  0.47456100000000123  1.0000
  C   C28       1.0  0.2109685699999987  0.11120073000000028  0.43671905000000066  1.0000
  C   C29       1.0  0.19528990999999962  0.9164381599999986  0.5377566399999978  1.0000
  C   C30       1.0  0.0981239099999982  0.9874901199999969  0.5281223499999967  1.0000
  C   C31       1.0  0.12362765999999678  0.8983382799999972  0.5659427699999995  1.0000
  C   C32       1.0  0.139158700000003  0.0920860299999973  0.4646886399999985  1.0000
  C   C33       1.0  0.4369968700000014  0.19402798000000135  0.4369943900000024  1.0000
  C   C34       1.0  0.5528689599999979  0.8373891800000026  0.5650442800000022  1.0000
  C   C35       1.0  0.561301229999998  0.02697948000000138  0.4667379500000024  1.0000
  C   C36       1.0  0.538252810000003  0.11813626000000003  0.4303178799999968  1.0000
  C   C37       1.0  0.5193440700000025  0.9237872899999999  0.5354935399999974  1.0000
  C   C38       1.0  0.4258625599999988  0.9996782699999971  0.535703060000003  1.0000
  C   C39       1.0  0.4490805100000017  0.9079505099999992  0.5715667699999968  1.0000
  C   C40       1.0  0.46801276000000064  0.10342525000000087  0.46690811999999937  1.0000
  C   C41       1.0  0.24057660999999794  0.4745588700000027  0.3619216399999985  1.0000
  C   C42       1.0  0.2620341900000014  0.5317747799999993  0.4764503500000004  1.0000
  C   C43       1.0  0.2977852799999994  0.6076365799999977  0.4927746700000029  1.0000
  C   C44       1.0  0.2853613799999977  0.5281053000000001  0.39313678999999974  1.0000
  C   C45       1.0  0.7522231100000027  0.5014202600000034  0.6508394600000001  1.0000
  C   C46       1.0  0.7455934700000028  0.405671329999997  0.5597103500000031  1.0000
  C   C47       1.0  0.7149273500000034  0.37789409999999896  0.5009698699999987  1.0000
  C   C48       1.0  0.7197283499999969  0.46379798000000255  0.5954551900000027  1.0000
  C   C49       1.0  0.7734644100000024  0.1663493200000019  0.41156048999999933  1.0000
  C   C50       1.0  0.8948742999999978  0.8127133600000038  0.5657107800000033  1.0000
  C   C51       1.0  0.7671028500000006  0.9758288399999984  0.5208212799999998  1.0000
  C   C52       1.0  0.7921679399999988  0.8861958800000024  0.5613258999999999  1.0000
  C   C53       1.0  0.8082917099999989  0.08014821999999815  0.4531061100000001  1.0000
  C   C54       1.0  0.904659770000002  0.006161689999998966  0.4688579899999965  1.0000
  C   C55       1.0  0.879925870000001  0.09645151000000142  0.4274768900000012  1.0000
  C   C56       1.0  0.8630324800000013  0.9021094399999969  0.5332767700000004  1.0000
  C   C57       1.0  0.9160337799999992  0.4329382700000012  0.3969017100000016  1.0000
  C   C58       1.0  0.08475088000000143  0.5553576000000009  0.6045804800000026  1.0000
  C   C59       1.0  0.060247740000001215  0.4651084799999979  0.5137128599999983  1.0000
  C   C60       1.0  0.022717769999999915  0.43201170999999766  0.46233592000000096  1.0000
  C   C61       1.0  0.04040399000000153  0.525898660000003  0.5517280999999982  1.0000
  C   C62       1.0  0.9413775599999994  0.523525399999997  0.4867660600000007  1.0000
  C   C63       1.0  0.9790726000000021  0.5569374399999987  0.537946980000001  1.0000
  C   C64       1.0  0.9612657400000016  0.46264324999999934  0.4489704399999965  1.0000
  O   O1        1.0  0.33413739000000225  0.6106512400000029  0.838238259999997  1.0000
  O   O2        1.0  0.2727049800000003  0.5955161300000001  0.7375750100000004  1.0000
  O   O3        1.0  0.9877937700000031  0.36785854000000034  0.15048783999999668  1.0000
  O   O4        1.0  0.04602330000000171  0.39231577999999706  0.24979783999999938  1.0000
  O   O5        1.0  0.1306565300000031  0.5386807900000009  0.8113608199999973  1.0000
  O   O6        1.0  0.1884862200000015  0.45132677000000143  0.17743733999999728  1.0000
  O   O7        1.0  0.6654368299999973  0.4070367899999994  0.15638874999999788  1.0000
  O   O8        1.0  0.7295598700000028  0.40722652000000187  0.2592943000000005  1.0000
  O   O9        1.0  0.013660000000001614  0.6278449300000021  0.8445366799999974  1.0000
  O   O10       1.0  0.9524076800000002  0.609796379999999  0.7451060599999976  1.0000
  O   O11       1.0  0.8134179400000005  0.5543083999999965  0.8173101400000036  1.0000
  O   O12       1.0  0.8716292599999989  0.45995105000000086  0.18518245999999997  1.0000
  O   O13       1.0  0.32073932000000127  0.3905635599999968  0.148795309999997  1.0000
  O   O14       1.0  0.3816784400000017  0.3906863899999991  0.2554802399999971  1.0000
  O   O15       1.0  0.6762313400000011  0.6036250200000028  0.8528086999999971  1.0000
  O   O16       1.0  0.61148077  0.6559636599999978  0.742572299999999  1.0000
  O   O17       1.0  0.520647199999999  0.456893479999998  0.19005420999999958  1.0000
  O   O18       1.0  0.476093849999998  0.560910370000002  0.8099783600000023  1.0000
  O   O19       1.0  0.04151399999999941  0.15492360999999735  0.47247990999999695  1.0000
  O   O20       1.0  0.13578358000000182  0.2712244399999975  0.35276060000000337  1.0000
  O   O21       1.0  0.29062178000000216  0.8475541899999967  0.5298121300000034  1.0000
  O   O22       1.0  0.19475672000000088  0.7339552600000018  0.6462825699999967  1.0000
  O   O23       1.0  0.2548623599999971  0.20912863000000215  0.3763615299999969  1.0000
  O   O24       1.0  0.0785591499999967  0.8014962800000021  0.6264155900000006  1.0000
  O   O25       1.0  0.37353482000000326  0.1755752500000014  0.46800670999999733  1.0000
  O   O26       1.0  0.4771704099999994  0.2886036599999997  0.3803825099999969  1.0000
  O   O27       1.0  0.6170711600000018  0.8634617900000027  0.531026539999999  1.0000
  O   O28       1.0  0.5178807500000033  0.7395945700000014  0.6227007199999974  1.0000
  O   O29       1.0  0.5850359499999982  0.2128833599999993  0.3630272799999972  1.0000
  O   O30       1.0  0.40463255000000237  0.8106174600000032  0.6384962200000004  1.0000
  O   O31       1.0  0.522296390000001  0.4920772400000004  0.37549371000000054  1.0000
  O   O32       1.0  0.39414905000000294  0.6246534400000031  0.6310450000000003  1.0000
  O   O33       1.0  0.3792498299999991  0.3997903100000003  0.42668786000000125  1.0000
  O   O34       1.0  0.1926910700000022  0.5151498500000002  0.3268424999999979  1.0000
  O   O35       1.0  0.2508981599999985  0.3907566700000019  0.36295522000000346  1.0000
  O   O36       1.0  0.27857149999999825  0.639420610000002  0.5484087999999971  1.0000
  O   O37       1.0  0.4855578399999985  0.5334474000000001  0.6199685599999967  1.0000
  O   O38       1.0  0.6118419100000025  0.3963474800000029  0.365459010000002  1.0000
  O   O39       1.0  0.6268053000000008  0.6347828199999983  0.5793112599999971  1.0000
  O   O40       1.0  0.8082354300000034  0.4800887099999969  0.6706489900000037  1.0000
  O   O41       1.0  0.7225843000000012  0.5573207899999987  0.6772188300000009  1.0000
  O   O42       1.0  0.7310389399999977  0.3298501700000003  0.45639778000000314  1.0000
  O   O43       1.0  0.7107827600000008  0.14761886000000154  0.44840980000000025  1.0000
  O   O44       1.0  0.8076050399999986  0.26050962000000066  0.33544272000000314  1.0000
  O   O45       1.0  0.9588727000000006  0.8348522699999991  0.5338629900000028  1.0000
  O   O46       1.0  0.8567992799999972  0.7170548799999994  0.6237952500000005  1.0000
  O   O47       1.0  0.7475018800000015  0.7882852899999974  0.6236305500000014  1.0000
  O   O48       1.0  0.9257339799999967  0.1922095799999965  0.3652847999999977  1.0000
  O   O49       1.0  0.8701956299999977  0.4809788600000006  0.3688913000000014  1.0000
  O   O50       1.0  0.9212147400000035  0.3568058999999978  0.382573790000002  1.0000
  O   O51       1.0  0.132504400000002  0.5103061200000029  0.6303045499999981  1.0000
  O   O52       1.0  0.0768021200000035  0.6277823300000023  0.6228001599999969  1.0000
  O   O53       1.0  0.0466317699999976  0.3739141399999967  0.42876811  1.0000
  O   O54       1.0  0.9554293099999994  0.615664670000001  0.5706069599999991  1.0000
